Circuit: * BSS138 N-Channel MOSFET

Fatal Error: No analysis request found.
