Circuit: * C:\Users\alsab\Desktop\UNI\WORK\DPC\PythonCodeDPC\Draft2.asc

Error on line 2 : .model bss138 nmos(vto=1.3 kp=0.5 lambda=0.02 is=1e-14 rg=9 rd=0.35 rs=0.6 cgdmax=13p cgs=27p cjo=6p)
	* Unrecognized parameter "cgdmax" -- ignored
	* Unrecognized parameter "cgs" -- ignored
	* Unrecognized parameter "cjo" -- ignored
.OP point found by inspection.

Date: Thu Sep 19 13:24:51 2024
Total elapsed time: 0.058 seconds.

tnom = 27
temp = 27
method = trap
totiter = 50
traniter = 0
tranpoints = 0
accept = 0
rejected = 0
matrix size = 7
fillins = 0
solver = Normal
Matrix Compiler1: 528 bytes object code size
Matrix Compiler2: 569 bytes object code size
