Circuit: * C:\Users\alsab\Desktop\UNI\WORK\DPC\PythonCodeDPC\MOSFET.asc

WARNING: Can't resolve .param kp=0.12a/v^2
Questionable use of curly braces in ".model dmos nmos(level=1, vto={vth}, kp={kp}, lambda={lambda})"
    Error: yet unevaluated parameter in: "[kp]"
Error on line 20 : m:u1:1 0«:d» lv«:g» l1«:s» u1:dmos l=1u w=1u
	 Unable to find definition of model "1u"
WARNING: Node U1:DMOS is floating.

WARNING: Less than two connections to node U1:DRAIN.  This node is used by R:U1:D.
WARNING: Less than two connections to node U1:SOURCE.  This node is used by R:U1:S.
Direct Newton iteration for .op point succeeded.

Date: Wed Sep 25 16:08:15 2024
Total elapsed time: 3.036 seconds.

tnom = 27
temp = 27
method = modified trap
totiter = 2127
traniter = 2102
tranpoints = 1052
accept = 1052
rejected = 0
matrix size = 9
fillins = 0
solver = Normal
Matrix Compiler1: 314 bytes object code size  0.2/0.1/[0.0]
Matrix Compiler2: off  [0.1]/0.1/0.1

