Circuit: * C:\Users\alsab\Desktop\UNI\WORK\DPC\PythonCodeDPC\Sensortest.asc

Direct Newton iteration for .op point succeeded.

Date: Tue Sep 17 16:18:06 2024
Total elapsed time: 0.077 seconds.

tnom = 27
temp = 27
method = modified trap
totiter = 2100
traniter = 2096
tranpoints = 1049
accept = 1049
rejected = 0
matrix size = 7
fillins = 0
solver = Normal
Matrix Compiler1:       7 opcodes  0.1/[0.0]/0.0
Matrix Compiler2: off  [0.0]/0.0/0.0

